<?xml version="1.0" encoding="UTF-8" standalone="yes"?><template><description></description><name>SECloud Flow</name><snippet><connections><id>682802f5-ad7d-49a0-a7ed-8da6cf8ebed8</id><parentGroupId>7c84501d-d10c-407c-b9f3-1d80e38fe36a</parentGroupId><backPressureDataSizeThreshold>0 MB</backPressureDataSizeThreshold><backPressureObjectThreshold>0</backPressureObjectThreshold><bends><x>2473.7626953125</x><y>1051.9999389648438</y></bends><bends><x>2473.7626953125</x><y>1101.9999389648438</y></bends><destination><groupId>7c84501d-d10c-407c-b9f3-1d80e38fe36a</groupId><id>96da0bf6-d08e-4732-bd52-fb25e0de37d8</id><type>PROCESSOR</type></destination><flowFileExpiration>0 sec</flowFileExpiration><labelIndex>1</labelIndex><name></name><selectedRelationships>failure</selectedRelationships><source><groupId>7c84501d-d10c-407c-b9f3-1d80e38fe36a</groupId><id>96da0bf6-d08e-4732-bd52-fb25e0de37d8</id><type>PROCESSOR</type></source><zIndex>0</zIndex></connections><connections><id>856b2cd4-fa5a-4516-8c2f-160d671da066</id><parentGroupId>7c84501d-d10c-407c-b9f3-1d80e38fe36a</parentGroupId><backPressureDataSizeThreshold>0 MB</backPressureDataSizeThreshold><backPressureObjectThreshold>0</backPressureObjectThreshold><destination><groupId>f3a56de0-9d70-44a5-8a86-5fcb7b3463b0</groupId><id>fabd40d5-6c25-45fe-9e55-5b823daca4ae</id><type>INPUT_PORT</type></destination><flowFileExpiration>0 sec</flowFileExpiration><labelIndex>1</labelIndex><name></name><source><groupId>275578c6-f74e-4da6-9c37-859a47c35e64</groupId><id>500fc7ba-6b4f-4c6d-b9be-b746cc6a4ffc</id><type>REMOTE_OUTPUT_PORT</type></source><zIndex>0</zIndex></connections><connections><id>9ff4ea5f-ada2-4b6b-b624-3170ac81e71c</id><parentGroupId>7c84501d-d10c-407c-b9f3-1d80e38fe36a</parentGroupId><backPressureDataSizeThreshold>0 MB</backPressureDataSizeThreshold><backPressureObjectThreshold>0</backPressureObjectThreshold><destination><groupId>7c84501d-d10c-407c-b9f3-1d80e38fe36a</groupId><id>961015d7-01f0-433b-aad7-50ab275a7a87</id><type>FUNNEL</type></destination><flowFileExpiration>0 sec</flowFileExpiration><labelIndex>1</labelIndex><name></name><source><groupId>f3a56de0-9d70-44a5-8a86-5fcb7b3463b0</groupId><id>36d676a0-f4cc-4d91-aa48-ee8ce287e084</id><type>OUTPUT_PORT</type></source><zIndex>0</zIndex></connections><connections><id>bde0985a-d6b8-43b5-96e1-ed9e0c9d5ec1</id><parentGroupId>7c84501d-d10c-407c-b9f3-1d80e38fe36a</parentGroupId><backPressureDataSizeThreshold>0 MB</backPressureDataSizeThreshold><backPressureObjectThreshold>0</backPressureObjectThreshold><destination><groupId>7c84501d-d10c-407c-b9f3-1d80e38fe36a</groupId><id>2cfd0072-f103-4f43-b7cd-28f8dd701fe3</id><type>FUNNEL</type></destination><flowFileExpiration>0 sec</flowFileExpiration><labelIndex>1</labelIndex><name></name><selectedRelationships>success</selectedRelationships><source><groupId>7c84501d-d10c-407c-b9f3-1d80e38fe36a</groupId><id>b8ded018-861a-446f-a79f-183b2e0dbca9</id><type>PROCESSOR</type></source><zIndex>0</zIndex></connections><connections><id>78a5380c-48d6-47a6-9fe2-03dd554d0814</id><parentGroupId>7c84501d-d10c-407c-b9f3-1d80e38fe36a</parentGroupId><backPressureDataSizeThreshold>0 MB</backPressureDataSizeThreshold><backPressureObjectThreshold>0</backPressureObjectThreshold><destination><groupId>b68c5bf0-a86c-4741-a4e4-b176130340ce</groupId><id>e0566b58-9316-4f69-915c-e9e10a7f03e1</id><type>INPUT_PORT</type></destination><flowFileExpiration>0 sec</flowFileExpiration><labelIndex>1</labelIndex><name></name><source><groupId>7c84501d-d10c-407c-b9f3-1d80e38fe36a</groupId><id>2cfd0072-f103-4f43-b7cd-28f8dd701fe3</id><type>FUNNEL</type></source><zIndex>0</zIndex></connections><connections><id>4c22c64d-a530-43c8-89f0-2156c94ebc43</id><parentGroupId>7c84501d-d10c-407c-b9f3-1d80e38fe36a</parentGroupId><backPressureDataSizeThreshold>0 MB</backPressureDataSizeThreshold><backPressureObjectThreshold>0</backPressureObjectThreshold><destination><groupId>7c84501d-d10c-407c-b9f3-1d80e38fe36a</groupId><id>961015d7-01f0-433b-aad7-50ab275a7a87</id><type>FUNNEL</type></destination><flowFileExpiration>0 sec</flowFileExpiration><labelIndex>1</labelIndex><name></name><source><groupId>275578c6-f74e-4da6-9c37-859a47c35e64</groupId><id>8c37e2cd-ee9b-44e3-a60b-ec17a2306393</id><type>REMOTE_OUTPUT_PORT</type></source><zIndex>0</zIndex></connections><connections><id>ea394fd8-8e41-4eb0-8436-dbb0ec31fa5e</id><parentGroupId>7c84501d-d10c-407c-b9f3-1d80e38fe36a</parentGroupId><backPressureDataSizeThreshold>0 MB</backPressureDataSizeThreshold><backPressureObjectThreshold>0</backPressureObjectThreshold><destination><groupId>275578c6-f74e-4da6-9c37-859a47c35e64</groupId><id>da67c7e3-e965-40c1-8156-6941a227de01</id><type>REMOTE_INPUT_PORT</type></destination><flowFileExpiration>0 sec</flowFileExpiration><labelIndex>1</labelIndex><name></name><selectedRelationships>success</selectedRelationships><source><groupId>7c84501d-d10c-407c-b9f3-1d80e38fe36a</groupId><id>ec29cc4b-befe-4016-a062-052e000a2c3c</id><type>PROCESSOR</type></source><zIndex>0</zIndex></connections><connections><id>6d9dcc57-f981-45f2-a29c-39f767897f54</id><parentGroupId>7c84501d-d10c-407c-b9f3-1d80e38fe36a</parentGroupId><backPressureDataSizeThreshold>0 MB</backPressureDataSizeThreshold><backPressureObjectThreshold>0</backPressureObjectThreshold><destination><groupId>7c84501d-d10c-407c-b9f3-1d80e38fe36a</groupId><id>96da0bf6-d08e-4732-bd52-fb25e0de37d8</id><type>PROCESSOR</type></destination><flowFileExpiration>0 sec</flowFileExpiration><labelIndex>1</labelIndex><name></name><source><groupId>7c84501d-d10c-407c-b9f3-1d80e38fe36a</groupId><id>2cfd0072-f103-4f43-b7cd-28f8dd701fe3</id><type>FUNNEL</type></source><zIndex>0</zIndex></connections><connections><id>76c532a1-498e-453c-88eb-32a7c773eb22</id><parentGroupId>7c84501d-d10c-407c-b9f3-1d80e38fe36a</parentGroupId><backPressureDataSizeThreshold>0 MB</backPressureDataSizeThreshold><backPressureObjectThreshold>0</backPressureObjectThreshold><destination><groupId>7c84501d-d10c-407c-b9f3-1d80e38fe36a</groupId><id>94458f8e-f625-468d-a961-be76f0337c16</id><type>PROCESSOR</type></destination><flowFileExpiration>0 sec</flowFileExpiration><labelIndex>1</labelIndex><name></name><source><groupId>7c84501d-d10c-407c-b9f3-1d80e38fe36a</groupId><id>961015d7-01f0-433b-aad7-50ab275a7a87</id><type>FUNNEL</type></source><zIndex>0</zIndex></connections><connections><id>de43058e-f7dd-46fb-8517-379595b97875</id><parentGroupId>7c84501d-d10c-407c-b9f3-1d80e38fe36a</parentGroupId><backPressureDataSizeThreshold>0 MB</backPressureDataSizeThreshold><backPressureObjectThreshold>0</backPressureObjectThreshold><destination><groupId>7c84501d-d10c-407c-b9f3-1d80e38fe36a</groupId><id>8aa20eb9-eb21-4423-8e7e-ce6c9f7474e7</id><type>PROCESSOR</type></destination><flowFileExpiration>0 sec</flowFileExpiration><labelIndex>1</labelIndex><name></name><source><groupId>7c84501d-d10c-407c-b9f3-1d80e38fe36a</groupId><id>2cfd0072-f103-4f43-b7cd-28f8dd701fe3</id><type>FUNNEL</type></source><zIndex>0</zIndex></connections><connections><id>391ddd0b-dd0f-48f4-a070-8962e2a2b597</id><parentGroupId>7c84501d-d10c-407c-b9f3-1d80e38fe36a</parentGroupId><backPressureDataSizeThreshold>0 MB</backPressureDataSizeThreshold><backPressureObjectThreshold>0</backPressureObjectThreshold><destination><groupId>b68c5bf0-a86c-4741-a4e4-b176130340ce</groupId><id>e0566b58-9316-4f69-915c-e9e10a7f03e1</id><type>INPUT_PORT</type></destination><flowFileExpiration>0 sec</flowFileExpiration><labelIndex>1</labelIndex><name></name><selectedRelationships>success</selectedRelationships><source><groupId>7c84501d-d10c-407c-b9f3-1d80e38fe36a</groupId><id>94458f8e-f625-468d-a961-be76f0337c16</id><type>PROCESSOR</type></source><zIndex>0</zIndex></connections><connections><id>56e0d1da-0899-4901-9bee-563bb3389a10</id><parentGroupId>7c84501d-d10c-407c-b9f3-1d80e38fe36a</parentGroupId><backPressureDataSizeThreshold>0 MB</backPressureDataSizeThreshold><backPressureObjectThreshold>0</backPressureObjectThreshold><destination><groupId>7c84501d-d10c-407c-b9f3-1d80e38fe36a</groupId><id>ddc44659-c221-4c3b-b1c5-333d209b2eaf</id><type>PROCESSOR</type></destination><flowFileExpiration>0 sec</flowFileExpiration><labelIndex>1</labelIndex><name></name><source><groupId>7c84501d-d10c-407c-b9f3-1d80e38fe36a</groupId><id>961015d7-01f0-433b-aad7-50ab275a7a87</id><type>FUNNEL</type></source><zIndex>0</zIndex></connections><connections><id>e32eb185-204e-4acd-a9d7-bb18fd853787</id><parentGroupId>7c84501d-d10c-407c-b9f3-1d80e38fe36a</parentGroupId><backPressureDataSizeThreshold>0 MB</backPressureDataSizeThreshold><backPressureObjectThreshold>0</backPressureObjectThreshold><destination><groupId>17056cdd-2b66-410f-92ec-af51bbc8f23d</groupId><id>bf898afd-7cb8-4df9-95ee-b49eb622fe65</id><type>INPUT_PORT</type></destination><flowFileExpiration>0 sec</flowFileExpiration><labelIndex>1</labelIndex><name></name><source><groupId>7c84501d-d10c-407c-b9f3-1d80e38fe36a</groupId><id>2cfd0072-f103-4f43-b7cd-28f8dd701fe3</id><type>FUNNEL</type></source><zIndex>0</zIndex></connections><connections><id>b0660165-a261-4b80-bc6f-b3d137269510</id><parentGroupId>7c84501d-d10c-407c-b9f3-1d80e38fe36a</parentGroupId><backPressureDataSizeThreshold>0 MB</backPressureDataSizeThreshold><backPressureObjectThreshold>0</backPressureObjectThreshold><destination><groupId>275578c6-f74e-4da6-9c37-859a47c35e64</groupId><id>da67c7e3-e965-40c1-8156-6941a227de01</id><type>REMOTE_INPUT_PORT</type></destination><flowFileExpiration>0 sec</flowFileExpiration><labelIndex>1</labelIndex><name></name><selectedRelationships>success</selectedRelationships><source><groupId>7c84501d-d10c-407c-b9f3-1d80e38fe36a</groupId><id>77315cef-6434-4c7e-94eb-b8d1ba9cc938</id><type>PROCESSOR</type></source><zIndex>0</zIndex></connections><connections><id>1f0c3cdb-4171-40f5-b1be-938d874a7ae5</id><parentGroupId>7c84501d-d10c-407c-b9f3-1d80e38fe36a</parentGroupId><backPressureDataSizeThreshold>0 MB</backPressureDataSizeThreshold><backPressureObjectThreshold>0</backPressureObjectThreshold><bends><x>3662.7626953125</x><y>280.0</y></bends><bends><x>3662.7626953125</x><y>330.0</y></bends><destination><groupId>7c84501d-d10c-407c-b9f3-1d80e38fe36a</groupId><id>ddc44659-c221-4c3b-b1c5-333d209b2eaf</id><type>PROCESSOR</type></destination><flowFileExpiration>0 sec</flowFileExpiration><labelIndex>1</labelIndex><name></name><selectedRelationships>connection_failure</selectedRelationships><selectedRelationships>failure</selectedRelationships><source><groupId>7c84501d-d10c-407c-b9f3-1d80e38fe36a</groupId><id>ddc44659-c221-4c3b-b1c5-333d209b2eaf</id><type>PROCESSOR</type></source><zIndex>0</zIndex></connections><connections><id>89946583-4fb4-4c2a-bffb-735c9799cd7f</id><parentGroupId>7c84501d-d10c-407c-b9f3-1d80e38fe36a</parentGroupId><backPressureDataSizeThreshold>0 MB</backPressureDataSizeThreshold><backPressureObjectThreshold>0</backPressureObjectThreshold><destination><groupId>7c84501d-d10c-407c-b9f3-1d80e38fe36a</groupId><id>18c77020-2385-42a5-a6e1-0cd9bbe377f7</id><type>PROCESSOR</type></destination><flowFileExpiration>0 sec</flowFileExpiration><labelIndex>1</labelIndex><name></name><source><groupId>17056cdd-2b66-410f-92ec-af51bbc8f23d</groupId><id>a360b00d-fd06-444b-ba61-e24439228b1b</id><type>OUTPUT_PORT</type></source><zIndex>0</zIndex></connections><connections><id>5f976af1-837e-4bcf-93b2-3bc9c01563b7</id><parentGroupId>7c84501d-d10c-407c-b9f3-1d80e38fe36a</parentGroupId><backPressureDataSizeThreshold>0 MB</backPressureDataSizeThreshold><backPressureObjectThreshold>0</backPressureObjectThreshold><destination><groupId>7c84501d-d10c-407c-b9f3-1d80e38fe36a</groupId><id>b8ded018-861a-446f-a79f-183b2e0dbca9</id><type>PROCESSOR</type></destination><flowFileExpiration>0 sec</flowFileExpiration><labelIndex>1</labelIndex><name></name><source><groupId>f3a56de0-9d70-44a5-8a86-5fcb7b3463b0</groupId><id>7eee498b-c39a-4cd7-8c45-bd5c845e1439</id><type>OUTPUT_PORT</type></source><zIndex>0</zIndex></connections><connections><id>c5c67221-1c8d-4c6c-9464-24c040e826e7</id><parentGroupId>7c84501d-d10c-407c-b9f3-1d80e38fe36a</parentGroupId><backPressureDataSizeThreshold>0 MB</backPressureDataSizeThreshold><backPressureObjectThreshold>0</backPressureObjectThreshold><bends><x>2996.7626953125</x><y>1054.9999389648438</y></bends><bends><x>2996.7626953125</x><y>1104.9999389648438</y></bends><destination><groupId>7c84501d-d10c-407c-b9f3-1d80e38fe36a</groupId><id>8aa20eb9-eb21-4423-8e7e-ce6c9f7474e7</id><type>PROCESSOR</type></destination><flowFileExpiration>0 sec</flowFileExpiration><labelIndex>1</labelIndex><name></name><selectedRelationships>failure</selectedRelationships><source><groupId>7c84501d-d10c-407c-b9f3-1d80e38fe36a</groupId><id>8aa20eb9-eb21-4423-8e7e-ce6c9f7474e7</id><type>PROCESSOR</type></source><zIndex>0</zIndex></connections><connections><id>3c53b644-ec87-4c3e-bdfa-f0e6cd719ea0</id><parentGroupId>7c84501d-d10c-407c-b9f3-1d80e38fe36a</parentGroupId><backPressureDataSizeThreshold>0 MB</backPressureDataSizeThreshold><backPressureObjectThreshold>0</backPressureObjectThreshold><bends><x>3927.7626953125</x><y>888.9999694824219</y></bends><bends><x>3927.7626953125</x><y>938.9999694824219</y></bends><destination><groupId>7c84501d-d10c-407c-b9f3-1d80e38fe36a</groupId><id>18c77020-2385-42a5-a6e1-0cd9bbe377f7</id><type>PROCESSOR</type></destination><flowFileExpiration>0 sec</flowFileExpiration><labelIndex>1</labelIndex><name></name><selectedRelationships>connection_failure</selectedRelationships><selectedRelationships>failure</selectedRelationships><source><groupId>7c84501d-d10c-407c-b9f3-1d80e38fe36a</groupId><id>18c77020-2385-42a5-a6e1-0cd9bbe377f7</id><type>PROCESSOR</type></source><zIndex>0</zIndex></connections><controllerServices><id>f9dc2a33-1060-4231-9147-863f19f38c22</id><comments></comments><descriptors><entry><key>Hadoop Configuration Files</key><value><description>Comma-separated list of Hadoop Configuration files, such as hbase-site.xml and core-site.xml for kerberos, including full paths to the files.</description><displayName>Hadoop Configuration Files</displayName><dynamic>false</dynamic><name>Hadoop Configuration Files</name><required>false</required><sensitive>false</sensitive><supportsEl>false</supportsEl></value></entry><entry><key>Kerberos Principal</key><value><description>Kerberos principal to authenticate as. Requires nifi.kerberos.krb5.file to be set in your nifi.properties</description><displayName>Kerberos Principal</displayName><dynamic>false</dynamic><name>Kerberos Principal</name><required>false</required><sensitive>false</sensitive><supportsEl>false</supportsEl></value></entry><entry><key>Kerberos Keytab</key><value><description>Kerberos keytab associated with the principal. Requires nifi.kerberos.krb5.file to be set in your nifi.properties</description><displayName>Kerberos Keytab</displayName><dynamic>false</dynamic><name>Kerberos Keytab</name><required>false</required><sensitive>false</sensitive><supportsEl>false</supportsEl></value></entry><entry><key>ZooKeeper Quorum</key><value><description>Comma-separated list of ZooKeeper hosts for HBase. Required if Hadoop Configuration Files are not provided.</description><displayName>ZooKeeper Quorum</displayName><dynamic>false</dynamic><name>ZooKeeper Quorum</name><required>false</required><sensitive>false</sensitive><supportsEl>false</supportsEl></value></entry><entry><key>ZooKeeper Client Port</key><value><description>The port on which ZooKeeper is accepting client connections. Required if Hadoop Configuration Files are not provided.</description><displayName>ZooKeeper Client Port</displayName><dynamic>false</dynamic><name>ZooKeeper Client Port</name><required>false</required><sensitive>false</sensitive><supportsEl>false</supportsEl></value></entry><entry><key>ZooKeeper ZNode Parent</key><value><description>The ZooKeeper ZNode Parent value for HBase (example: /hbase). Required if Hadoop Configuration Files are not provided.</description><displayName>ZooKeeper ZNode Parent</displayName><dynamic>false</dynamic><name>ZooKeeper ZNode Parent</name><required>false</required><sensitive>false</sensitive><supportsEl>false</supportsEl></value></entry><entry><key>HBase Client Retries</key><value><defaultValue>1</defaultValue><description>The number of times the HBase client will retry connecting. Required if Hadoop Configuration Files are not provided.</description><displayName>HBase Client Retries</displayName><dynamic>false</dynamic><name>HBase Client Retries</name><required>false</required><sensitive>false</sensitive><supportsEl>false</supportsEl></value></entry></descriptors><name>HBase_1_1_2_ClientService</name><properties><entry><key>Hadoop Configuration Files</key><value>/etc/hbase/conf/hbase-site.xml</value></entry><entry><key>Kerberos Principal</key></entry><entry><key>Kerberos Keytab</key></entry><entry><key>ZooKeeper Quorum</key></entry><entry><key>ZooKeeper Client Port</key></entry><entry><key>ZooKeeper ZNode Parent</key></entry><entry><key>HBase Client Retries</key><value>1</value></entry></properties><referencingComponents><activeThreadCount>0</activeThreadCount><descriptors><entry><key>HBase Client Service</key><value><allowableValues><displayName>HBase_1_1_2_ClientService</displayName><value>f9dc2a33-1060-4231-9147-863f19f38c22</value></allowableValues><description>Specifies the Controller Service to use for accessing HBase.</description><displayName>HBase Client Service</displayName><dynamic>false</dynamic><identifiesControllerService>org.apache.nifi.hbase.HBaseClientService</identifiesControllerService><name>HBase Client Service</name><required>true</required><sensitive>false</sensitive><supportsEl>false</supportsEl></value></entry><entry><key>Table Name</key><value><description>The name of the HBase Table to put data into</description><displayName>Table Name</displayName><dynamic>false</dynamic><name>Table Name</name><required>true</required><sensitive>false</sensitive><supportsEl>true</supportsEl></value></entry><entry><key>Row Identifier</key><value><description>Specifies the Row ID to use when inserting data into HBase</description><displayName>Row Identifier</displayName><dynamic>false</dynamic><name>Row Identifier</name><required>false</required><sensitive>false</sensitive><supportsEl>true</supportsEl></value></entry><entry><key>Row Identifier Field Name</key><value><description>Specifies the name of a JSON element whose value should be used as the row id for the given JSON document.</description><displayName>Row Identifier Field Name</displayName><dynamic>false</dynamic><name>Row Identifier Field Name</name><required>false</required><sensitive>false</sensitive><supportsEl>true</supportsEl></value></entry><entry><key>Column Family</key><value><description>The Column Family to use when inserting data into HBase</description><displayName>Column Family</displayName><dynamic>false</dynamic><name>Column Family</name><required>true</required><sensitive>false</sensitive><supportsEl>true</supportsEl></value></entry><entry><key>Batch Size</key><value><defaultValue>25</defaultValue><description>The maximum number of FlowFiles to process in a single execution. The FlowFiles will be grouped by table, and a single Put per table will be performed.</description><displayName>Batch Size</displayName><dynamic>false</dynamic><name>Batch Size</name><required>true</required><sensitive>false</sensitive><supportsEl>false</supportsEl></value></entry><entry><key>Complex Field Strategy</key><value><allowableValues><description>Route entire FlowFile to failure if any elements contain complex values.</description><displayName>Fail</displayName><value>Fail</value></allowableValues><allowableValues><description>Provide a warning and do not include field in row sent to HBase.</description><displayName>Warn</displayName><value>Warn</value></allowableValues><allowableValues><description>Silently ignore and do not include in row sent to HBase.</description><displayName>Ignore</displayName><value>Ignore</value></allowableValues><allowableValues><description>Use the string representation of the complex field as the value of the given column.</description><displayName>Text</displayName><value>Text</value></allowableValues><defaultValue>Text</defaultValue><description>Indicates how to handle complex fields, i.e. fields that do not have a single text value.</description><displayName>Complex Field Strategy</displayName><dynamic>false</dynamic><name>Complex Field Strategy</name><required>true</required><sensitive>false</sensitive><supportsEl>false</supportsEl></value></entry></descriptors><groupId>7c84501d-d10c-407c-b9f3-1d80e38fe36a</groupId><id>8aa20eb9-eb21-4423-8e7e-ce6c9f7474e7</id><name>Device Readings to HBase</name><properties><entry><key>HBase Client Service</key><value>f9dc2a33-1060-4231-9147-863f19f38c22</value></entry><entry><key>Table Name</key><value>devices</value></entry><entry><key>Row Identifier</key><value>${now():format('yyyyMMddhhmmss')}-${device.id}</value></entry><entry><key>Row Identifier Field Name</key></entry><entry><key>Column Family</key><value>w</value></entry><entry><key>Batch Size</key><value>25</value></entry><entry><key>Complex Field Strategy</key><value>Text</value></entry></properties><referenceType>Processor</referenceType><state>STOPPED</state><type>org.apache.nifi.hbase.PutHBaseJSON</type><validationErrors>'HBase Client Service' validated against 'HBase_1_1_2_ClientService' is invalid because Controller Service HBase_1_1_2_ClientService[id=f9dc2a33-1060-4231-9147-863f19f38c22] is disabled</validationErrors></referencingComponents><state>DISABLED</state><type>org.apache.nifi.hbase.HBase_1_1_2_ClientService</type></controllerServices><controllerServices><id>37b9f0d1-34e9-46a8-a990-b715cdaf8c45</id><comments></comments><descriptors><entry><key>Keystore Filename</key><value><description>The fully-qualified filename of the Keystore</description><displayName>Keystore Filename</displayName><dynamic>false</dynamic><name>Keystore Filename</name><required>false</required><sensitive>false</sensitive><supportsEl>false</supportsEl></value></entry><entry><key>Keystore Password</key><value><description>The password for the Keystore</description><displayName>Keystore Password</displayName><dynamic>false</dynamic><name>Keystore Password</name><required>false</required><sensitive>true</sensitive><supportsEl>false</supportsEl></value></entry><entry><key>Keystore Type</key><value><allowableValues><displayName>JKS</displayName><value>JKS</value></allowableValues><allowableValues><displayName>PKCS12</displayName><value>PKCS12</value></allowableValues><description>The Type of the Keystore</description><displayName>Keystore Type</displayName><dynamic>false</dynamic><name>Keystore Type</name><required>false</required><sensitive>false</sensitive><supportsEl>false</supportsEl></value></entry><entry><key>Truststore Filename</key><value><description>The fully-qualified filename of the Truststore</description><displayName>Truststore Filename</displayName><dynamic>false</dynamic><name>Truststore Filename</name><required>false</required><sensitive>false</sensitive><supportsEl>false</supportsEl></value></entry><entry><key>Truststore Password</key><value><description>The password for the Truststore</description><displayName>Truststore Password</displayName><dynamic>false</dynamic><name>Truststore Password</name><required>false</required><sensitive>true</sensitive><supportsEl>false</supportsEl></value></entry><entry><key>Truststore Type</key><value><allowableValues><displayName>JKS</displayName><value>JKS</value></allowableValues><allowableValues><displayName>PKCS12</displayName><value>PKCS12</value></allowableValues><description>The Type of the Truststore. Either JKS or PKCS12</description><displayName>Truststore Type</displayName><dynamic>false</dynamic><name>Truststore Type</name><required>false</required><sensitive>false</sensitive><supportsEl>false</supportsEl></value></entry><entry><key>SSL Protocol</key><value><allowableValues><displayName>SSL</displayName><value>SSL</value></allowableValues><allowableValues><displayName>SSLv2Hello</displayName><value>SSLv2Hello</value></allowableValues><allowableValues><displayName>SSLv3</displayName><value>SSLv3</value></allowableValues><allowableValues><displayName>TLS</displayName><value>TLS</value></allowableValues><allowableValues><displayName>TLSv1</displayName><value>TLSv1</value></allowableValues><allowableValues><displayName>TLSv1.1</displayName><value>TLSv1.1</value></allowableValues><allowableValues><displayName>TLSv1.2</displayName><value>TLSv1.2</value></allowableValues><defaultValue>TLS</defaultValue><description>The algorithm to use for this SSL context</description><displayName>SSL Protocol</displayName><dynamic>false</dynamic><name>SSL Protocol</name><required>false</required><sensitive>false</sensitive><supportsEl>false</supportsEl></value></entry></descriptors><name>StandardSSLContextService</name><properties><entry><key>Keystore Filename</key><value>./conf/keystore.jks</value></entry><entry><key>Keystore Password</key></entry><entry><key>Keystore Type</key><value>JKS</value></entry><entry><key>Truststore Filename</key><value>./conf/truststore.jks</value></entry><entry><key>Truststore Password</key></entry><entry><key>Truststore Type</key><value>JKS</value></entry><entry><key>SSL Protocol</key><value>TLSv1.2</value></entry></properties><referencingComponents><activeThreadCount>0</activeThreadCount><descriptors><entry><key>Base Path</key><value><defaultValue>contentListener</defaultValue><description>Base path for incoming connections</description><displayName>Base Path</displayName><dynamic>false</dynamic><name>Base Path</name><required>true</required><sensitive>false</sensitive><supportsEl>false</supportsEl></value></entry><entry><key>Listening Port</key><value><description>The Port to listen on for incoming connections</description><displayName>Listening Port</displayName><dynamic>false</dynamic><name>Listening Port</name><required>true</required><sensitive>false</sensitive><supportsEl>false</supportsEl></value></entry><entry><key>Max Data to Receive per Second</key><value><description>The maximum amount of data to receive per second; this allows the bandwidth to be throttled to a specified data rate; if not specified, the data rate is not throttled</description><displayName>Max Data to Receive per Second</displayName><dynamic>false</dynamic><name>Max Data to Receive per Second</name><required>false</required><sensitive>false</sensitive><supportsEl>false</supportsEl></value></entry><entry><key>SSL Context Service</key><value><allowableValues><displayName>StandardSSLContextService</displayName><value>37b9f0d1-34e9-46a8-a990-b715cdaf8c45</value></allowableValues><description>The Controller Service to use in order to obtain an SSL Context</description><displayName>SSL Context Service</displayName><dynamic>false</dynamic><identifiesControllerService>org.apache.nifi.ssl.SSLContextService</identifiesControllerService><name>SSL Context Service</name><required>false</required><sensitive>false</sensitive><supportsEl>false</supportsEl></value></entry><entry><key>Authorized DN Pattern</key><value><defaultValue>.*</defaultValue><description>A Regular Expression to apply against the Distinguished Name of incoming connections. If the Pattern does not match the DN, the connection will be refused.</description><displayName>Authorized DN Pattern</displayName><dynamic>false</dynamic><name>Authorized DN Pattern</name><required>true</required><sensitive>false</sensitive><supportsEl>false</supportsEl></value></entry><entry><key>Max Unconfirmed Flowfile Time</key><value><defaultValue>60 secs</defaultValue><description>The maximum amount of time to wait for a FlowFile to be confirmed before it is removed from the cache</description><displayName>Max Unconfirmed Flowfile Time</displayName><dynamic>false</dynamic><name>Max Unconfirmed Flowfile Time</name><required>true</required><sensitive>false</sensitive><supportsEl>false</supportsEl></value></entry><entry><key>HTTP Headers to receive as Attributes (Regex)</key><value><description>Specifies the Regular Expression that determines the names of HTTP Headers that should be passed along as FlowFile attributes</description><displayName>HTTP Headers to receive as Attributes (Regex)</displayName><dynamic>false</dynamic><name>HTTP Headers to receive as Attributes (Regex)</name><required>false</required><sensitive>false</sensitive><supportsEl>false</supportsEl></value></entry></descriptors><groupId>7c84501d-d10c-407c-b9f3-1d80e38fe36a</groupId><id>ec29cc4b-befe-4016-a062-052e000a2c3c</id><name>Listen for Command to Send to Devices</name><properties><entry><key>Base Path</key><value>commands</value></entry><entry><key>Listening Port</key><value>9445</value></entry><entry><key>Max Data to Receive per Second</key></entry><entry><key>SSL Context Service</key><value>37b9f0d1-34e9-46a8-a990-b715cdaf8c45</value></entry><entry><key>Authorized DN Pattern</key><value>.*o=Hortonworks.*</value></entry><entry><key>Max Unconfirmed Flowfile Time</key><value>60 secs</value></entry><entry><key>HTTP Headers to receive as Attributes (Regex)</key></entry></properties><referenceType>Processor</referenceType><state>STOPPED</state><type>org.apache.nifi.processors.standard.ListenHTTP</type><validationErrors>'SSL Context Service' validated against 'StandardSSLContextService' is invalid because Controller Service SSLContextService[id=37b9f0d1-34e9-46a8-a990-b715cdaf8c45] is disabled</validationErrors></referencingComponents><state>DISABLED</state><type>org.apache.nifi.ssl.StandardSSLContextService</type></controllerServices><funnels><id>2cfd0072-f103-4f43-b7cd-28f8dd701fe3</id><parentGroupId>7c84501d-d10c-407c-b9f3-1d80e38fe36a</parentGroupId><position><x>2413.7626953125</x><y>897.9999694824219</y></position></funnels><funnels><id>961015d7-01f0-433b-aad7-50ab275a7a87</id><parentGroupId>7c84501d-d10c-407c-b9f3-1d80e38fe36a</parentGroupId><position><x>2951.7626953125</x><y>282.0</y></position></funnels><labels><id>3777fd73-1913-4ca7-b4