<?xml version="1.0" encoding="UTF-8" standalone="yes"?><template><description></description><name>PiWiNiFi Cloud Flow</name><snippet><connections><id>972db8b8-c2f7-48cd-b56d-63ed43d9cccd</id><parentGroupId>3042b954-defa-483f-b6e0-271a695d7f22</parentGroupId><backPressureDataSizeThreshold>0 MB</backPressureDataSizeThreshold><backPressureObjectThreshold>0</backPressureObjectThreshold><destination><groupId>3042b954-defa-483f-b6e0-271a695d7f22</groupId><id>8c37e2cd-ee9b-44e3-a60b-ec17a2306393</id><type>OUTPUT_PORT</type></destination><flowFileExpiration>0 sec</flowFileExpiration><labelIndex>1</labelIndex><name></name><source><groupId>3042b954-defa-483f-b6e0-271a695d7f22</groupId><id>35fd994b-4950-4f13-8b24-8469f417329b</id><type>INPUT_PORT</type></source><zIndex>0</zIndex></connections><connections><id>f440740d-c838-49b9-90d3-39239fe2e0f5</id><parentGroupId>3042b954-defa-483f-b6e0-271a695d7f22</parentGroupId><backPressureDataSizeThreshold>0 MB</backPressureDataSizeThreshold><backPressureObjectThreshold>0</backPressureObjectThreshold><destination><groupId>92f1f015-8657-4e5e-a119-4afe9d74dd6a</groupId><id>5b09e6d2-6a47-493e-81a0-0042e5491538</id><type>INPUT_PORT</type></destination><flowFileExpiration>1 hour</flowFileExpiration><labelIndex>1</labelIndex><name></name><prioritizers>org.apache.nifi.prioritizer.NewestFlowFileFirstPrioritizer</prioritizers><source><groupId>3042b954-defa-483f-b6e0-271a695d7f22</groupId><id>0d3f6be1-2771-49a1-aa57-3b1eee3d3d19</id><type>FUNNEL</type></source><zIndex>0</zIndex></connections><connections><id>a633a886-4e1d-4fc2-8242-adcfe43a078c</id><parentGroupId>3042b954-defa-483f-b6e0-271a695d7f22</parentGroupId><backPressureDataSizeThreshold>256 MB</backPressureDataSizeThreshold><backPressureObjectThreshold>1000000</backPressureObjectThreshold><destination><groupId>3042b954-defa-483f-b6e0-271a695d7f22</groupId><id>500fc7ba-6b4f-4c6d-b9be-b746cc6a4ffc</id><type>OUTPUT_PORT</type></destination><flowFileExpiration>0 sec</flowFileExpiration><labelIndex>1</labelIndex><name>Back Pressure on Devices</name><prioritizers>org.apache.nifi.prioritizer.NewestFlowFileFirstPrioritizer</prioritizers><source><groupId>3042b954-defa-483f-b6e0-271a695d7f22</groupId><id>def0e7a1-5d2d-4e53-bda0-f4ecf3ad5b9b</id><type>INPUT_PORT</type></source><zIndex>0</zIndex></connections><connections><id>2b58082c-a781-4840-aa28-411f5953cd25</id><parentGroupId>3042b954-defa-483f-b6e0-271a695d7f22</parentGroupId><backPressureDataSizeThreshold>0 MB</backPressureDataSizeThreshold><backPressureObjectThreshold>0</backPressureObjectThreshold><destination><groupId>3042b954-defa-483f-b6e0-271a695d7f22</groupId><id>33bf6177-3442-4a67-a15f-d693429db1ea</id><type>FUNNEL</type></destination><flowFileExpiration>0 sec</flowFileExpiration><labelIndex>0</labelIndex><name></name><selectedRelationships>success</selectedRelationships><source><groupId>3042b954-defa-483f-b6e0-271a695d7f22</groupId><id>b79e6c1b-fb5b-4cc3-a0ea-17c39754d480</id><type>PROCESSOR</type></source><zIndex>0</zIndex></connections><connections><id>936643e9-91bb-40f7-bab6-da560dc8cb53</id><parentGroupId>3042b954-defa-483f-b6e0-271a695d7f22</parentGroupId><backPressureDataSizeThreshold>0 MB</backPressureDataSizeThreshold><backPressureObjectThreshold>0</backPressureObjectThreshold><destination><groupId>3042b954-defa-483f-b6e0-271a695d7f22</groupId><id>b79e6c1b-fb5b-4cc3-a0ea-17c39754d480</id><type>PROCESSOR</type></destination><flowFileExpiration>0 sec</flowFileExpiration><labelIndex>1</labelIndex><name></name><source><groupId>3042b954-defa-483f-b6e0-271a695d7f22</groupId><id>da67c7e3-e965-40c1-8156-6941a227de01</id><type>INPUT_PORT</type></source><zIndex>0</zIndex></connections><connections><id>d2989eca-b313-4209-8ff2-636d55e64a72</id><parentGroupId>3042b954-defa-483f-b6e0-271a695d7f22</parentGroupId><backPressureDataSizeThreshold>0 MB</backPressureDataSizeThreshold><backPressureObjectThreshold>0</backPressureObjectThreshold><destination><groupId>3042b954-defa-483f-b6e0-271a695d7f22</groupId><id>5b2a4959-c064-4278-8f41-076be8673df7</id><type>OUTPUT_PORT</type></destination><flowFileExpiration>0 sec</flowFileExpiration><labelIndex>1</labelIndex><name></name><prioritizers>org.apache.nifi.prioritizer.PriorityAttributePrioritizer</prioritizers><prioritizers>org.apache.nifi.prioritizer.NewestFlowFileFirstPrioritizer</prioritizers><source><groupId>3042b954-defa-483f-b6e0-271a695d7f22</groupId><id>33bf6177-3442-4a67-a15f-d693429db1ea</id><type>FUNNEL</type></source><zIndex>0</zIndex></connections><connections><id>2e60fc99-cd0e-4a8e-a034-2844107b65f9</id><parentGroupId>3042b954-defa-483f-b6e0-271a695d7f22</parentGroupId><backPressureDataSizeThreshold>0 MB</backPressureDataSizeThreshold><backPressureObjectThreshold>0</backPressureObjectThreshold><destination><groupId>3042b954-defa-483f-b6e0-271a695d7f22</groupId><id>3e37f20f-8bda-4e83-afeb-0a446f1b4fb3</id><type>FUNNEL</type></destination><flowFileExpiration>0 sec</flowFileExpiration><labelIndex>0</labelIndex><name></name><selectedRelationships>success</selectedRelationships><source><groupId>3042b954-defa-483f-b6e0-271a695d7f22</groupId><id>2f36d2ea-ff03-41b3-aa33-de66427836d8</id><type>PROCESSOR</type></source><zIndex>0</zIndex></connections><connections><id>fb9f4f31-bc35-494f-95bc-cbe5b6b24391</id><parentGroupId>3042b954-defa-483f-b6e0-271a695d7f22</parentGroupId><backPressureDataSizeThreshold>0 MB</backPressureDataSizeThreshold><backPressureObjectThreshold>0</backPressureObjectThreshold><destination><groupId>3042b954-defa-483f-b6e0-271a695d7f22</groupId><id>df9e4666-634c-4fa2-b673-a16acc595bc4</id><type>OUTPUT_PORT</type></destination><flowFileExpiration>0 sec</flowFileExpiration><labelIndex>1</labelIndex><name></name><source><groupId>f515efb5-1730-4b52-abcb-b3a9feb7f90e</groupId><id>12bdaa31-b53d-402e-99af-0be6a746c9e6</id><type>OUTPUT_PORT</type></source><zIndex>0</zIndex></connections><connections><id>c75c594d-7dd4-4951-9549-0bab2c42e306</id><parentGroupId>3042b954-defa-483f-b6e0-271a695d7f22</parentGroupId><backPressureDataSizeThreshold>0 MB</backPressureDataSizeThreshold><backPressureObjectThreshold>0</backPressureObjectThreshold><destination><groupId>3042b954-defa-483f-b6e0-271a695d7f22</groupId><id>d9f85081-48f1-4abd-bbba-e86acd964a3f</id><type>PROCESSOR</type></destination><flowFileExpiration>0 sec</flowFileExpiration><labelIndex>1</labelIndex><name></name><source><groupId>3042b954-defa-483f-b6e0-271a695d7f22</groupId><id>def0e7a1-5d2d-4e53-bda0-f4ecf3ad5b9b</id><type>INPUT_PORT</type></source><zIndex>0</zIndex></connections><connections><id>ac0a0868-bd95-4079-8669-5bd211a7fe4b</id><parentGroupId>3042b954-defa-483f-b6e0-271a695d7f22</parentGroupId><backPressureDataSizeThreshold>0 MB</backPressureDataSizeThreshold><backPressureObjectThreshold>0</backPressureObjectThreshold><destination><groupId>3042b954-defa-483f-b6e0-271a695d7f22</groupId><id>0d3f6be1-2771-49a1-aa57-3b1eee3d3d19</id><type>FUNNEL</type></destination><flowFileExpiration>0 sec</flowFileExpiration><labelIndex>1</labelIndex><name></name><source><groupId>3042b954-defa-483f-b6e0-271a695d7f22</groupId><id>def0e7a1-5d2d-4e53-bda0-f4ecf3ad5b9b</id><type>INPUT_PORT</type></source><zIndex>0</zIndex></connections><connections><id>3b57e6bd-69fc-47fc-b2eb-1a1f18eb47da</id><parentGroupId>3042b954-defa-483f-b6e0-271a695d7f22</parentGroupId><backPressureDataSizeThreshold>0 MB</backPressureDataSizeThreshold><backPressureObjectThreshold>0</backPressureObjectThreshold><destination><groupId>3042b954-defa-483f-b6e0-271a695d7f22</groupId><id>275716dd-7e2c-4d74-a7ce-b2aa147897c1</id><type>OUTPUT_PORT</type></destination><flowFileExpiration>0 sec</flowFileExpiration><labelIndex>1</labelIndex><name></name><selectedRelationships>success</selectedRelationships><source><groupId>3042b954-defa-483f-b6e0-271a695d7f22</groupId><id>d9f85081-48f1-4abd-bbba-e86acd964a3f</id><type>PROCESSOR</type></source><zIndex>0</zIndex></connections><connections><id>bef4e6a3-9ee5-46d9-83b4-3bab85bd23d1</id><parentGroupId>3042b954-defa-483f-b6e0-271a695d7f22</parentGroupId><backPressureDataSizeThreshold>0 MB</backPressureDataSizeThreshold><backPressureObjectThreshold>0</backPressureObjectThreshold><destination><groupId>3042b954-defa-483f-b6e0-271a695d7f22</groupId><id>33bf6177-3442-4a67-a15f-d693429db1ea</id><type>FUNNEL</type></destination><flowFileExpiration>0 sec</flowFileExpiration><labelIndex>1</labelIndex><name></name><selectedRelationships>success</selectedRelationships><source><groupId>3042b954-defa-483f-b6e0-271a695d7f22</groupId><id>ff94f7d2-6504-4f05-8874-019ff86ed3be</id><type>PROCESSOR</type></source><zIndex>0</zIndex></connections><connections><id>31e55ad1-8e33-44cf-b8d3-0fbfb7fc5ed9</id><parentGroupId>3042b954-defa-483f-b6e0-271a695d7f22</parentGroupId><backPressureDataSizeThreshold>0 MB</backPressureDataSizeThreshold><backPressureObjectThreshold>0</backPressureObjectThreshold><destination><groupId>3042b954-defa-483f-b6e0-271a695d7f22</groupId><id>0d3f6be1-2771-49a1-aa57-3b1eee3d3d19</id><type>FUNNEL</type></destination><flowFileExpiration>0 sec</flowFileExpiration><labelIndex>1</labelIndex><name></name><source><groupId>3042b954-defa-483f-b6e0-271a695d7f22</groupId><id>35fd994b-4950-4f13-8b24-8469f417329b</id><type>INPUT_PORT</type></source><zIndex>0</zIndex></connections><connections><id>3d41cea7-e40e-4b4e-ac9d-a9180754b617</id><parentGroupId>3042b954-defa-483f-b6e0-271a695d7f22</parentGroupId><backPressureDataSizeThreshold>0 MB</backPressureDataSizeThreshold><backPressureObjectThreshold>0</backPressureObjectThreshold><destination><groupId>3042b954-defa-483f-b6e0-271a695d7f22</groupId><id>3e37f20f-8bda-4e83-afeb-0a446f1b4fb3</id><type>FUNNEL</type></destination><flowFileExpiration>0 sec</flowFileExpiration><labelIndex>0</labelIndex><name></name><source><groupId>3042b954-defa-483f-b6e0-271a695d7f22</groupId><id>0943337a-78e0-4e53-92b3-678eb6db9268</id><type>INPUT_PORT</type></source><zIndex>0</zIndex></connections><connections><id>3cdd2e09-6668-405a-b80f-6527a2dc267b</id><parentGroupId>3042b954-defa-483f-b6e0-271a695d7f22</parentGroupId><backPressureDataSizeThreshold>0 MB</backPressureDataSizeThreshold><backPressureObjectThreshold>0</backPressureObjectThreshold><destination><groupId>3042b954-defa-483f-b6e0-271a695d7f22</groupId><id>3e37f20f-8bda-4e83-afeb-0a446f1b4fb3</id><type>FUNNEL</type></destination><flowFileExpiration>0 sec</flowFileExpiration><labelIndex>0</labelIndex><name></name><selectedRelationships>success</selectedRelationships><source><groupId>3042b954-defa-483f-b6e0-271a695d7f22</groupId><id>318ecbb6-7072-43e4-83f0-74cfeb16501a</id><type>PROCESSOR</type></source><zIndex>0</zIndex></connections><connections><id>6bcafb1d-1cd7-4fcd-8877-67441a8b9f9f</id><parentGroupId>3042b954-defa-483f-b6e0-271a695d7f22</parentGroupId><backPressureDataSizeThreshold>0 MB</backPressureDataSizeThreshold><backPressureObjectThreshold>0</backPressureObjectThreshold><destination><groupId>3042b954-defa-483f-b6e0-271a695d7f22</groupId><id>ff94f7d2-6504-4f05-8874-019ff86ed3be</id><type>PROCESSOR</type></destination><flowFileExpiration>0 sec</flowFileExpiration><labelIndex>1</labelIndex><name></name><source><groupId>3042b954-defa-483f-b6e0-271a695d7f22</groupId><id>3e37f20f-8bda-4e83-afeb-0a446f1b4fb3</id><type>FUNNEL</type></source><zIndex>0</zIndex></connections><controllerServices><id>d1cedd00-02d3-41ba-a592-006eaecdefae</id><comments></comments><descriptors><entry><key>Keystore Filename</key><value><description>The fully-qualified filename of the Keystore</description><displayName>Keystore Filename</displayName><dynamic>false</dynamic><name>Keystore Filename</name><required>false</required><sensitive>false</sensitive><supportsEl>false</supportsEl></value></entry><entry><key>Keystore Password</key><value><description>The password for the Keystore</description><displayName>Keystore Password</displayName><dynamic>false</dynamic><name>Keystore Password</name><required>false</required><sensitive>true</sensitive><supportsEl>false</supportsEl></value></entry><entry><key>Keystore Type</key><value><allowableValues><displayName>JKS</displayName><value>JKS</value></allowableValues><allowableValues><displayName>PKCS12</displayName><value>PKCS12</value></allowableValues><description>The Type of the Keystore</description><displayName>Keystore Type</displayName><dynamic>false</dynamic><name>Keystore Type</name><required>false</required><sensitive>false</sensitive><supportsEl>false</supportsEl></value></entry><entry><key>Truststore Filename</key><value><description>The fully-qualified filename of the Truststore</description><displayName>Truststore Filename</displayName><dynamic>false</dynamic><name>Truststore Filename</name><required>false</required><sensitive>false</sensitive><supportsEl>false</supportsEl></value></entry><entry><key>Truststore Password</key><value><description>The password for the Truststore</description><displayName>Truststore Password</displayName><dynamic>false</dynamic><name>Truststore Password</name><required>false</required><sensitive>true</sensitive><supportsEl>false</supportsEl></value></entry><entry><key>Truststore Type</key><value><allowableValues><displayName>JKS</displayName><value>JKS</value></allowableValues><allowableValues><displayName>PKCS12</displayName><value>PKCS12</value></allowableValues><description>The Type of the Truststore. Either JKS or PKCS12</description><displayName>Truststore Type</displayName><dynamic>false</dynamic><name>Truststore Type</name><required>false</required><sensitive>false</sensitive><supportsEl>false</supportsEl></value></entry><entry><key>SSL Protocol</key><value><allowableValues><displayName>SSL</displayName><value>SSL</value></allowableValues><allowableValues><displayName>SSLv2Hello</displayName><value>SSLv2Hello</value></allowableValues><allowableValues><displayName>SSLv3</displayName><value>SSLv3</value></allowableValues><allowableValues><displayName>TLS</displayName><value>TLS</value></allowableValues><allowableValues><displayName>TLSv1</displayName><value>TLSv1</value></allowableValues><allowableValues><displayName>TLSv1.1</displayName><value>TLSv1.1</value></allowableValues><allowableValues><displayName>TLSv1.2</displayName><value>TLSv1.2</value></allowableValues><defaultValue>TLS</defaultValue><description>The algorithm to use for this SSL context</description><displayName>SSL Protocol</displayName><dynamic>false</dynamic><name>SSL Protocol</name><required>false</required><sensitive>false</sensitive><supportsEl>false</supportsEl></value></entry></descriptors><name>StandardSSLContextService</name><properties><entry><key>Keystore Filename</key><value>./conf/keystore.jks</value></entry><entry><key>Keystore Password</key></entry><entry><key>Keystore Type</key><value>JKS</value></entry><entry><key>Truststore Filename</key><value>./conf/truststore.jks</value></entry><entry><key>Truststore Password</key></entry><entry><key>Truststore Type</key><value>JKS</value></entry><entry><key>SSL Protocol</key><value>TLSv1.2</value></entry></properties><referencingComponents><descriptors><entry><key>Port</key><value><defaultValue>4557</defaultValue><description>The port to listen on for incoming connections</description><displayName>Port</displayName><dynamic>false</dynamic><name>Port</name><required>true</required><sensitive>false</sensitive><supportsEl>false</supportsEl></value></entry><entry><key>Maximum Cache Entries</key><value><defaultValue>10000</defaultValue><description>The maximum number of cache entries that the cache can hold</description><displayName>Maximum Cache Entries</displayName><dynamic>false</dynamic><name>Maximum Cache Entries</name><required>true</required><sensitive>false</sensitive><supportsEl>false</supportsEl></value></entry><entry><key>Eviction Strategy</key><value><allowableValues><displayName>Least Frequently Used</displayName><value>Least Frequently Used</value></allowableValues><allowableValues><displayName>Least Recently Used</displayName><value>Least Recently Used</value></allowableValues><allowableValues><displayName>First In, First Out</displayName><value>First In, First Out</value></allowableValues><defaultValue>Least Frequently Used</defaultValue><description>Determines which strategy should be used to evict values from the cache to make room for new entries</description><displayName>Eviction Strategy</displayName><dynamic>false</dynamic><name>Eviction Strategy</name><required>true</required><sensitive>false</sensitive><supportsEl>false</supportsEl></value></entry><entry><key>Persistence Directory</key><value><description>If specified, the cache will be persisted in the given directory; if not specified, the cache will be in-memory only</description><displayName>Persistence Directory</displayName><dynamic>false</dynamic><name>Persistence Directory</name><required>false</required><sensitive>false</sensitive><supportsEl>false</supportsEl></value></entry><entry><key>SSL Context Service</key><value><allowableValues><displayName>StandardSSLContextService</displayName><value>d1cedd00-02d3-41ba-a592-006eaecdefae</value></allowableValues><allowableValues><displayName>ClientSSLContext</displayName><value>ed184387-80c2-46a3-8683-287f119da768</value></allowableValues><description>If specified, this service will be used to create an SSL Context that will be used to secure communications; if not specified, communications will not be secure</description><displayName>SSL Context Service</displayName><dynamic>false</dynamic><identifiesControllerService>org.apache.nifi.ssl.SSLContextService</identifiesControllerService><name>SSL Context Service</name><required>false</required><sensitive>false</sensitive><supportsEl>false</supportsEl></value></entry></descriptors><id>a0156731-3c8d-4ab9-836c-e4fc90c4840e</id><name>OAuthTokenDistributedMapCacheServer</name><properties><entry><key>Port</key><value>4558</value></entry><entry><key>Maximum Cache Entries</key><value>10000</value></entry><entry><key>Eviction Strategy</key><value>Least Frequently Used</value></entry><entry><key>Persistence Directory</key><value>/tmp/oauth</value></entry><entry><key>SSL Context Service</key><value>d1cedd00-02d3-41ba-a592-006eaecdefae</value></entry></properties><referenceCycle>false</referenceCycle><referenceType>ControllerService</referenceType><state>DISABLED</state><type>org.apache.nifi.distributed.cache.server.map.DistributedMapCacheServer</type></referencingComponents><referencingComponents><activeThreadCount>0</activeThreadCount><descriptors><entry><key>Base Path</key><value><defaultValue>contentListener</defaultValue><description>Base path for incoming connections</description><displayName>Base Path</displayName><dynamic>false</dynamic><name>Base Path</name><required>true</required><sensitive>false</sensitive><supportsEl>false</supportsEl></value></entry><entry><key>Listening Port</key><value><description>The Port to listen on for incoming connections</description><displayName>Listening Port</displayName><dynamic>false</dynamic><name>Listening Port</name><required>true</required><sensitive>false</sensitive><supportsEl>false</supportsEl></value></entry><entry><key>Max Data to Receive per Second</key><value><description>The maximum amount of data to receive per second; this allows the bandwidth to be throttled to a specified data rate; if not specified, the data rate is not throttled</description><displayName>Max Data to Receive per Second</displayName><dynamic>false</dynamic><name>Max Data to Receive per Second</name><required>false</required><sensitive>false</sensitive><supportsEl>false</supportsEl></value></entry><entry><key>SSL Context Service</key><value><allowableValues><displayName>StandardSSLContextService</displayName><value>d1cedd00-02d3-41ba-a592-006eaecdefae</value></allowableValues><allowableValues><displayName>ClientSSLContext</displayName><value>ed184387-80c2-46a3-8683-287f119da768</value></allowableValues><description>The Controller Service to use in order to obtain an SSL Context</description><displayName>SSL Context Service</displayName><dynamic>false</dynamic><identifiesControllerService>org.apache.nifi.ssl.SSLContextService</identifiesControllerService><name>SSL Context Service</name><required>false</required><sensitive>false</sensitive><supportsEl>false</supportsEl></value></entry><entry><key>Authorized DN Pattern</key><value><defaultValue>.*</defaultValue><description>A Regular Expression to apply against the Distinguished Name of incoming connections. If the Pattern does not match the DN, the connection will be refused.</description><displayName>Authorized DN Pattern</displayName><dynamic>false</dynamic><name>Authorized DN Pattern</name><required>true</required><sensitive>false</sensitive><supportsEl>false</supportsEl></value></entry><entry><key>Max Unconfirmed Flowfile Time</key><value><defaultValue>60 secs</defaultValue><description>The maximum amount of time to wait for a FlowFile to be confirmed before it is removed from the cache</description><displayName>Max Unconfirmed Flowfile Time</displayName><dynamic>false</dynamic><name>Max Unconfirmed Flowfile Time</name><required>true</required><sensitive>false</sensitive><supportsEl>false</supportsEl></value></entry><entry><key>HTTP Headers to receive as Attributes (Regex)</key><value><description>Specifies the Regular Expression that determines the names of HTTP Headers that should be passed along as FlowFile attributes</description><displayName>HTTP Headers to receive as Attributes (Regex)</displayName><dynamic>false</dynamic><name>HTTP Headers to receive as Attributes (Regex)</name><required>false</required><sensitive>false</sensitive><supportsEl>false</supportsEl></value></entry></descriptors><groupId>3042b954-defa-483f-b6e0-271a695d7f22</groupId><id>a7cebd00-72f2-444e-ae3d-a8b07298a3d3</id><name>ListenHTTP</name><properties><entry><key>Base Path</key></entry><entry><key>Listening Port</key><value>9444</value></entry><entry><key>Max Data to Receive per Second</key></entry><entry><key>SSL Context Service</key><value>d1cedd00-02d3-41ba-a592-006eaecdefae</value></entry><entry><key>Authorized DN Pattern</key></entry><entry><key>Max Unconfirmed Flowfile Time</key></entry><entry><key>HTTP Headers to receive as Attributes (Regex)</key></entry></properties><referenceType>Processor</referenceType><state>RUNNING</state><type>org.apache.nifi.processors.standard.ListenHTTP</type></referencingComponents><referencingComponents><descriptors><entry><key>Server Hostname</key><value><description>The name of the server that is running the DistributedMapCacheServer service</description><displayName>Server Hostname</displayName><dynamic>false</dynamic><name>Server Hostname</name><required>true</required><sensitive>false</sensitive><supportsEl>false</supportsEl></value></entry><entry><key>Server Port</key><value><defaultValue>4557</defaultValue><description>The port on the remote server that is to be used when communicating with the DistributedMapCacheServer service</description><displayName>Server Port</displayName><dynamic>false</dynamic><name>Server Port</name><required>true</required><sensitive>false</sensitive><supportsEl>false</supportsEl></value></entry><entry><key>SSL Context Service</key><value><allowableValues><displayName>StandardSSLContextService</displayName><value>d1cedd00-02d3-41ba-a592-006eaecdefae</value></allowableValues><allowableValues><displayName>ClientSSLContext</displayName><value>ed184387-80c2-46a3-8683-287f119da768</value></allowableValues><description>If specified, indicates the SSL Context Service that is used to communicate with the remote server. If not specified, communications will not be encrypted</description><displayName>SSL Context Service</displayName><dynamic>false</dynamic><identifiesControllerService>org.apache.nifi.ssl.SSLContextService</identifiesControllerService><name>SSL Context Service</name><required>false</required><sensitive>false</sensitive><supportsEl>false</supportsEl></value></entry><entry><key>Communications Timeout</key><value><defaultValue>30 secs</defaultValue><description>Specifies how long to wait when communicating with the remote server before determining that there is a communications failure if data cannot be sent or received</description><displayName>Communications Timeout</displayName><dynamic>false</dynamic><name>Communications Timeout</name><required>true</required><sensitive>false</sensitive><supportsEl>false</supportsEl></value></entry></descriptors><id>7f4b0c6c-879d-46b5-a09e-f460ec3891fa</id><name>AddressBookService</name><properties><entry><key>Server Hostname</key><value>cloud.things.simonellistonball.com</value></entry><entry><key>Server Port</key><value>4557</value></entry><entry><key>SSL Context Service</key><value>d1cedd00-02d3-41ba-a592-006eaecdefae</value></entry><entry><key>Communications Timeout</key><value>30 secs</value></entry></properties><referenceCycle>false</referenceCycle><referenceType>ControllerService</referenceType><referencingComponents><activeThreadCount>0</activeThreadCount><descriptors><entry><key>Cache Entry Identifier</key><value><defaultValue>${hash.value}</defaultValue><description>A FlowFile attribute, or the results of an Attribute Expression Language statement, which will be evaluated against a FlowFile in order to determine the value used to identify duplicates; it is this value that is cached</description><displayName>Cache Entry Identifier</displayName><dynamic>false</dynamic><name>Cache Entry Identifier</name><required>true</required><sensitive>false</sensitive><supportsEl>true</supportsEl></value></entry><entry><key>Distributed Cache Service</key><value><allowableValues><displayName>OAuthTokenDistributedMapCacheClientService</displayName><value>22c91e6d-de94-4734-92bc-4e115d127553</value></allowableValues><allowableValues><displayName>AddressBookService</displayName><value>7f4b0c6c-879d-46b5-a09e-f460ec3891fa</value></allowableValues><allowableValues><displayName>AddressBookClient</displayName><value>45c448e9-afcd-4033-8019-0cb10ec161b2</value></allowableValues><description>The Controller Service that is used to get the cached values.</description><displayName>Distributed Cache Service</displayName><dynamic>false</dynamic><identifiesControllerService>org.apache.nifi.distributed.cache.client.DistributedMapCacheClient</identifiesControllerService><name>Distributed Cache Service</name><required>true</required><sensitive>false</sensitive><supportsEl>false</supportsEl></value></entry><entry><key>Put Cache Value In Attribute</key><value><description>If set, the cache value received will be put into an attribute of the FlowFile instead of a the content of theFlowFile. The attribute key to put to is determined by evaluating value of this property.</description><displayName>Put Cache Value In Attribute</displayName><dynamic>false</dynamic><name>Put Cache Value In Attribute</name><required>false</required><sensitive>false</sensitive><supportsEl>true</supportsEl></value></entry><entry><key>Max Length To Put In Attribute</key><value><defaultValue>256</defaultValue><description>If routing the cache value to an attribute of the FlowFile (by setting the &quot;Put Cache Value in attribute&quot; property), the number of characters put to the attribute value will be at most this amount. This is important because attributes are held in memory and large attributes will quickly cause out of memory issues. If the output goes longer than this value, it will be truncated to fit. Consider making this smaller if able.</description><displayName>Max Length To Put In Attribute</displayName><dynamic>false</dynamic><name>Max Length To Put In Attribute</name><required>false</required><sensitive>false</sensitive><supportsEl>false</supportsEl></value></entry><entry><key>Character Set</key><value><defaultValue>UTF-8</defaultValue><description>The Character Set in which the cached value is encoded. This will only be used when routing to an attribute.</description><displayName>Character Set</displayName><dynamic>false</dynamic><name>Character Set</name><required>false</required><sensitive>false</sensitive><supportsEl>false</supportsEl></value></entry></descriptors><groupId>b868e750-fbae-46ce-bde4-037c86646032</groupId><id>b78f47a4-e9e3-4d7d-a637-f471fad21295</id><name>FetchDistributedMapCache</name><properties><entry><key>Cache Entry Identifier</key><value>${hash.value}</value></entry><entry><key>Distributed Cache Service</key><value>7f4b0c6c-879d-46b5-a09e-f460ec3891fa</value></entry><entry><key>Put Cache Value In Attribute</key></entry><entry><key>Max Length To Put In Attribute</key><value>256</value></entry><entry><key>Character Set</key><value>UTF-8</value></entry></properties><referenceType>Processor</referenceType><state>STOPPED</state><type>org.apache.nifi.processors.standard.FetchDistributedMapCache</type><validationErrors>'Distributed Cache Service' validated against 'AddressBookService' is invalid because Controller Service DistributedMapCacheClientService[id=7f4b0c6c-879d-46b5-a09e-f460ec3891fa] is disabled</validationErrors><validationErrors>'Relationship success' is invalid because Relationship 'success' is not connected to any component and is not auto-terminated</validationErrors><validationErrors>'Relationship failure' is invalid because Relationship 'failure' is not connected to any component and is not auto-terminated</validationErrors><validationErrors>'Relationship not-found' is invalid because Relationship 'not-found' is not connected to any component and is not auto-terminated</validationErrors></referencingComponents><state>DISABLED</state><type>org.apache.nifi.distributed.cache.client.DistributedMapCacheClientService</type></referencingComponents><referencingComponents><activeThreadCount>0</activeThreadCount><descriptors><entry><key>Listening Port</key><value><defaultValue>80</defaultValue><description>The Port to listen on for incoming HTTP requests</description><displayName>Listening Port</displayName><dynamic>false</dynamic><name>Listening Port</name><required>true</required><sensitive>false</sensitive><supportsEl>false</sup